<?xml version="1.0" encoding="UTF-8"?>

<!-- generated on Thu Jun 21 21:51:22 2018 by SUMO netconvert Version 0.32.0
<?xml version="1.0" encoding="UTF-8"?>

<configuration xmlns:xsi="http://www.w3.org/2001/XMLSchema-instance" xsi:noNamespaceSchemaLocation="http://sumo.dlr.de/xsd/netconvertConfiguration.xsd">

    <input>
        <type-files value="/home/sumo/SumoWorkspace/osmNetconvert.typ.xml"/>
        <osm-files value="map3.osm.xml"/>
    </input>

    <output>
        <output-file value="ufma.net.xml"/>
    </output>

    <projection>
        <proj.utm value="true"/>
    </projection>

</configuration>
-->

<net version="0.27" xmlns:xsi="http://www.w3.org/2001/XMLSchema-instance" xsi:noNamespaceSchemaLocation="http://sumo.dlr.de/xsd/net_file.xsd">

    <location netOffset="-573792.80,283689.71" convBoundary="0.00,0.00,3998.40,1960.68" origBoundary="-44.336197,-2.566432,-44.300236,-2.547643" projParameter="+proj=utm +zone=23 +ellps=WGS84 +datum=WGS84 +units=m +no_defs"/>

    <type id="highway.bridleway" priority="1" numLanes="1" speed="2.78" allow="pedestrian" oneway="1" width="2.00"/>
    <type id="highway.bus_guideway" priority="1" numLanes="1" speed="27.78" allow="bus" oneway="1"/>
    <type id="highway.cycleway" priority="1" numLanes="1" speed="8.33" allow="bicycle" oneway="0" width="1.00"/>
    <type id="highway.footway" priority="1" numLanes="1" speed="2.78" allow="pedestrian" oneway="1" width="2.00"/>
    <type id="highway.ford" priority="1" numLanes="1" speed="2.78" allow="army" oneway="0"/>
    <type id="highway.living_street" priority="3" numLanes="1" speed="2.78" disallow="tram rail_urban rail rail_electric ship" oneway="0"/>
    <type id="highway.motorway" priority="13" numLanes="2" speed="44.44" allow="private emergency authority army vip passenger hov taxi bus coach delivery truck trailer motorcycle evehicle custom1 custom2" oneway="1"/>
    <type id="highway.motorway_link" priority="12" numLanes="1" speed="22.22" allow="private emergency authority army vip passenger hov taxi bus coach delivery truck trailer motorcycle evehicle custom1 custom2" oneway="1"/>
    <type id="highway.path" priority="1" numLanes="1" speed="2.78" allow="bicycle pedestrian" oneway="1" width="2.00"/>
    <type id="highway.pedestrian" priority="1" numLanes="1" speed="2.78" allow="pedestrian" oneway="1" width="2.00"/>
    <type id="highway.primary" priority="9" numLanes="2" speed="27.78" disallow="tram rail_urban rail rail_electric ship" oneway="0"/>
    <type id="highway.primary_link" priority="8" numLanes="1" speed="22.22" disallow="tram rail_urban rail rail_electric ship" oneway="0"/>
    <type id="highway.raceway" priority="14" numLanes="2" speed="83.33" allow="vip" oneway="0"/>
    <type id="highway.residential" priority="4" numLanes="1" speed="13.89" disallow="tram rail_urban rail rail_electric ship" oneway="0"/>
    <type id="highway.secondary" priority="7" numLanes="2" speed="27.78" disallow="tram rail_urban rail rail_electric ship" oneway="0"/>
    <type id="highway.secondary_link" priority="6" numLanes="1" speed="22.22" disallow="tram rail_urban rail rail_electric ship" oneway="0"/>
    <type id="highway.service" priority="2" numLanes="1" speed="5.56" allow="delivery bicycle pedestrian" oneway="0"/>
    <type id="highway.services" priority="1" numLanes="1" speed="8.33" disallow="tram rail_urban rail rail_electric ship" oneway="0"/>
    <type id="highway.stairs" priority="1" numLanes="1" speed="1.39" allow="pedestrian" oneway="1" width="2.00"/>
    <type id="highway.step" priority="1" numLanes="1" speed="1.39" allow="pedestrian" oneway="1" width="2.00"/>
    <type id="highway.steps" priority="1" numLanes="1" speed="1.39" allow="pedestrian" oneway="1" width="2.00"/>
    <type id="highway.tertiary" priority="6" numLanes="1" speed="22.22" disallow="tram rail_urban rail rail_electric ship" oneway="0"/>
    <type id="highway.tertiary_link" priority="5" numLanes="1" speed="22.22" disallow="tram rail_urban rail rail_electric ship" oneway="0"/>
    <type id="highway.track" priority="1" numLanes="1" speed="5.56" disallow="tram rail_urban rail rail_electric ship" oneway="0"/>
    <type id="highway.trunk" priority="11" numLanes="2" speed="27.78" disallow="tram rail_urban rail rail_electric bicycle pedestrian ship" oneway="0"/>
    <type id="highway.trunk_link" priority="10" numLanes="1" speed="22.22" disallow="tram rail_urban rail rail_electric bicycle pedestrian ship" oneway="0"/>
    <type id="highway.unclassified" priority="5" numLanes="1" speed="13.89" disallow="tram rail_urban rail rail_electric ship" oneway="0"/>
    <type id="highway.unsurfaced" priority="1" numLanes="1" speed="8.33" disallow="tram rail_urban rail rail_electric ship" oneway="0"/>
    <type id="railway.light_rail" priority="15" numLanes="1" speed="27.78" allow="rail_urban" oneway="1"/>
    <type id="railway.preserved" priority="15" numLanes="1" speed="27.78" allow="rail" oneway="1"/>
    <type id="railway.rail" priority="15" numLanes="1" speed="83.33" allow="rail rail_electric" oneway="1"/>
    <type id="railway.subway" priority="15" numLanes="1" speed="27.78" allow="rail_urban" oneway="1"/>
    <type id="railway.tram" priority="15" numLanes="1" speed="13.89" allow="tram" oneway="1"/>

    <edge id=":3344796537_0" function="internal">
        <lane id=":3344796537_0_0" index="0" disallow="tram rail_urban rail rail_electric ship" speed="13.89" length="4.82" shape="3419.32,1705.49 3417.96,1706.07 3417.04,1705.97 3416.57,1705.18 3416.55,1703.69"/>
    </edge>
    <edge id=":3344796546_0" function="internal">
        <lane id=":3344796546_0_0" index="0" disallow="tram rail_urban rail rail_electric ship" speed="15.28" length="7.69" shape="3227.05,1601.62 3227.09,1603.89 3227.43,1605.85 3228.07,1607.51 3229.02,1608.86"/>
    </edge>
    <edge id=":3344796546_1" function="internal">
        <lane id=":3344796546_1_0" index="0" disallow="tram rail_urban rail rail_electric ship" speed="16.67" length="8.03" shape="3223.19,1603.17 3229.02,1608.86"/>
        <lane id=":3344796546_1_1" index="1" disallow="tram rail_urban rail rail_electric ship" speed="16.67" length="8.03" shape="3220.92,1605.57 3226.59,1611.09"/>
    </edge>
    <edge id=":3344796548_0" function="internal">
        <lane id=":3344796548_0_0" index="0" disallow="tram rail_urban rail rail_electric ship" speed="13.89" length="9.41" shape="3323.98,1610.35 3322.80,1607.81 3322.00,1606.05 3320.97,1604.44 3319.12,1602.39"/>
    </edge>
    <edge id=":3344796548_1" function="internal">
        <lane id=":3344796548_1_0" index="0" disallow="tram rail_urban rail rail_electric ship" speed="13.89" length="6.18" shape="3323.98,1610.35 3322.62,1606.43 3322.97,1604.43"/>
    </edge>
    <edge id=":3344796548_2" function="internal">
        <lane id=":3344796548_2_0" index="0" disallow="tram rail_urban rail rail_electric ship" speed="13.89" length="2.41" shape="3323.98,1610.35 3324.16,1608.88 3324.71,1608.14"/>
    </edge>
    <edge id=":3344796548_9" function="internal">
        <lane id=":3344796548_9_0" index="0" speed="13.89" length="7.60" shape="3322.97,1604.43 3323.09,1603.74 3325.40,1602.27 3329.54,1602.03"/>
    </edge>
    <edge id=":3344796548_10" function="internal">
        <lane id=":3344796548_10_0" index="0" speed="13.89" length="2.41" shape="3324.71,1608.14 3325.64,1608.13 3326.93,1608.87"/>
    </edge>
    <edge id=":3344796548_3" function="internal">
        <lane id=":3344796548_3_0" index="0" disallow="tram rail_urban rail rail_electric ship" speed="13.89" length="5.87" shape="3329.30,1605.33 3327.53,1605.43 3326.55,1606.05 3326.35,1607.20 3326.93,1608.87"/>
    </edge>
    <edge id=":3344796548_4" function="internal">
        <lane id=":3344796548_4_0" index="0" disallow="tram rail_urban rail rail_electric ship" speed="13.89" length="10.98" shape="3329.30,1605.33 3326.10,1605.21 3323.66,1605.04 3321.50,1604.29 3319.12,1602.39"/>
    </edge>
    <edge id=":3344796548_5" function="internal">
        <lane id=":3344796548_5_0" index="0" disallow="tram rail_urban rail rail_electric ship" speed="13.89" length="4.82" shape="3329.30,1605.33 3328.13,1604.41 3327.78,1603.56 3328.25,1602.77 3329.54,1602.03"/>
    </edge>
    <edge id=":3344796548_6" function="internal">
        <lane id=":3344796548_6_0" index="0" disallow="tram rail_urban rail rail_electric ship" speed="13.89" length="8.68" shape="3321.45,1600.06 3323.37,1601.57 3325.04,1602.04 3326.94,1602.01 3329.54,1602.03"/>
    </edge>
    <edge id=":3344796548_7" function="internal">
        <lane id=":3344796548_7_0" index="0" disallow="tram rail_urban rail rail_electric ship" speed="13.89" length="10.46" shape="3321.45,1600.06 3323.48,1602.30 3324.67,1604.12 3325.62,1606.11 3326.93,1608.87"/>
    </edge>
    <edge id=":3344796548_8" function="internal">
        <lane id=":3344796548_8_0" index="0" disallow="tram rail_urban rail rail_electric ship" speed="13.89" length="2.55" shape="3321.45,1600.06 3321.74,1601.52 3321.45,1602.39 3321.32,1602.44"/>
    </edge>
    <edge id=":3344796548_11" function="internal">
        <lane id=":3344796548_11_0" index="0" speed="13.89" length="2.27" shape="3321.32,1602.44 3320.57,1602.68 3319.12,1602.39"/>
    </edge>
    <edge id=":3344796557_0" function="internal">
        <lane id=":3344796557_0_0" index="0" disallow="tram rail_urban rail rail_electric ship" speed="15.28" length="7.84" shape="3198.99,1580.40 3200.71,1581.62 3202.49,1582.31 3204.35,1582.46 3206.27,1582.08"/>
    </edge>
    <edge id=":3344796557_1" function="internal">
        <lane id=":3344796557_1_0" index="0" disallow="tram rail_urban rail rail_electric ship" speed="16.67" length="8.59" shape="3198.99,1580.40 3205.34,1586.26"/>
        <lane id=":3344796557_1_1" index="1" disallow="tram rail_urban rail rail_electric ship" speed="16.67" length="8.59" shape="3196.80,1582.86 3203.07,1588.66"/>
    </edge>
    <edge id=":3344796557_3" function="internal">
        <lane id=":3344796557_3_0" index="0" disallow="tram rail_urban rail rail_electric ship" speed="13.89" length="10.93" shape="3196.76,1587.24 3199.18,1585.28 3201.16,1584.03 3203.32,1583.09 3206.27,1582.08"/>
    </edge>
    <edge id=":3344796557_4" function="internal">
        <lane id=":3344796557_4_0" index="0" disallow="tram rail_urban rail rail_electric ship" speed="15.28" length="7.14" shape="3196.76,1587.24 3198.10,1586.52 3199.60,1586.51 3201.26,1587.22 3203.07,1588.66"/>
    </edge>
    <edge id=":3344796563_0" function="internal">
        <lane id=":3344796563_0_0" index="0" disallow="tram rail_urban rail rail_electric ship" speed="13.89" length="4.82" shape="2491.76,1568.44 2490.79,1569.57 2489.92,1569.87 2489.15,1569.36 2488.49,1568.04"/>
    </edge>
    <edge id=":3344796569_0" function="internal">
        <lane id=":3344796569_0_0" index="0" disallow="tram rail_urban rail rail_electric ship" speed="13.89" length="4.82" shape="2561.89,1562.21 2561.05,1560.99 2560.97,1560.07 2561.66,1559.46 2563.12,1559.15"/>
    </edge>
    <edge id=":3344796570_0" function="internal">
        <lane id=":3344796570_0_0" index="0" disallow="tram rail_urban rail rail_electric ship" speed="13.89" length="4.72" shape="3279.27,1562.43 3278.27,1561.66 3277.22,1561.32 3276.12,1561.40 3274.97,1561.90"/>
    </edge>
    <edge id=":3344796570_1" function="internal">
        <lane id=":3344796570_1_0" index="0" disallow="tram rail_urban rail rail_electric ship" speed="13.89" length="2.67" shape="3279.27,1562.43 3278.98,1560.97 3279.28,1560.10 3279.52,1560.01"/>
    </edge>
    <edge id=":3344796570_4" function="internal">
        <lane id=":3344796570_4_0" index="0" speed="13.89" length="2.15" shape="3279.52,1560.01 3280.15,1559.80 3281.61,1560.10"/>
    </edge>
    <edge id=":3344796570_2" function="internal">
        <lane id=":3344796570_2_0" index="0" disallow="tram rail_urban rail rail_electric ship" speed="13.89" length="4.78" shape="3280.93,1555.74 3280.48,1556.90 3280.44,1558.01 3280.82,1559.08 3281.61,1560.10"/>
    </edge>
    <edge id=":3344796570_3" function="internal">
        <lane id=":3344796570_3_0" index="0" disallow="tram rail_urban rail rail_electric ship" speed="13.89" length="8.75" shape="3280.93,1555.74 3279.64,1557.97 3278.55,1559.39 3277.16,1560.53 3274.97,1561.90"/>
    </edge>
    <edge id=":3344796578_0" function="internal">
        <lane id=":3344796578_0_0" index="0" disallow="tram rail_urban rail rail_electric ship" speed="13.89" length="5.47" shape="3285.21,1539.11 3284.10,1540.34 3283.33,1541.54 3282.90,1542.71 3282.83,1543.85"/>
    </edge>
    <edge id=":3344796578_1" function="internal">
        <lane id=":3344796578_1_0" index="0" disallow="tram rail_urban rail rail_electric ship" speed="13.89" length="5.81" shape="3280.90,1538.46 3281.75,1539.95 3282.29,1541.02 3282.62,1542.15 3282.83,1543.85"/>
    </edge>
    <edge id=":3344796580_0" function="internal">
        <lane id=":3344796580_0_0" index="0" disallow="tram rail_urban rail rail_electric ship" speed="13.89" length="8.26" shape="3251.44,1549.09 3251.16,1546.55 3250.59,1544.46 3249.73,1542.80 3248.59,1541.58"/>
    </edge>
    <edge id=":3344796580_1" function="internal">
        <lane id=":3344796580_1_0" index="0" disallow="tram rail_urban rail rail_electric ship" speed="13.89" length="8.62" shape="3251.44,1549.09 3251.27,1546.53 3251.25,1544.72 3251.70,1543.03 3252.92,1540.84"/>
    </edge>
    <edge id=":3344796580_2" function="internal">
        <lane id=":3344796580_2_0" index="0" disallow="tram rail_urban rail rail_electric ship" speed="13.89" length="7.08" shape="3247.58,1547.77 3248.98,1545.81 3249.62,1544.13 3249.49,1542.72 3248.59,1541.58"/>
    </edge>
    <edge id=":3344796580_3" function="internal">
        <lane id=":3344796580_3_0" index="0" disallow="tram rail_urban rail rail_electric ship" speed="13.89" length="8.76" shape="3247.58,1547.77 3249.28,1545.80 3250.43,1544.44 3251.49,1543.01 3252.92,1540.84"/>
    </edge>
    <edge id=":3344796583_0" function="internal">
        <lane id=":3344796583_0_0" index="0" disallow="tram rail_urban rail rail_electric ship" speed="13.89" length="4.92" shape="3254.24,1533.27 3255.42,1533.97 3256.58,1534.28 3257.72,1534.20 3258.84,1533.73"/>
    </edge>
    <edge id=":3344796583_1" function="internal">
        <lane id=":3344796583_1_0" index="0" disallow="tram rail_urban rail rail_electric ship" speed="13.89" length="5.51" shape="3255.01,1537.57 3255.90,1536.21 3256.60,1535.32 3257.46,1534.60 3258.84,1533.73"/>
    </edge>
    <edge id=":3344796584_0" function="internal">
        <lane id=":3344796584_0_0" index="0" disallow="tram rail_urban rail rail_electric ship" speed="13.89" length="5.31" shape="3272.57,1532.32 3273.73,1532.53 3274.93,1532.36 3276.17,1531.83 3277.47,1530.93"/>
    </edge>
    <edge id=":3344796584_1" function="internal">
        <lane id=":3344796584_1_0" index="0" disallow="tram rail_urban rail rail_electric ship" speed="13.89" length="5.76" shape="3272.57,1532.32 3274.16,1532.92 3275.19,1533.47 3276.13,1534.19 3277.42,1535.31"/>
    </edge>
    <edge id=":3344796623_0" function="internal">
        <lane id=":3344796623_0_0" index="0" disallow="tram rail_urban rail rail_electric ship" speed="13.89" length="5.58" shape="3045.62,1290.37 3043.98,1290.73 3042.80,1291.40 3042.08,1292.38 3041.81,1293.68"/>
    </edge>
    <edge id=":3344796623_1" function="internal">
        <lane id=":3344796623_1_0" index="0" disallow="tram rail_urban rail rail_electric ship" speed="13.89" length="11.01" shape="3045.62,1290.37 3042.55,1290.26 3040.38,1289.17 3039.11,1287.10 3038.74,1284.05"/>
    </edge>
    <edge id=":3344796623_2" function="internal">
        <lane id=":3344796623_2_0" index="0" disallow="tram rail_urban rail rail_electric ship" speed="13.89" length="4.82" shape="3045.62,1290.37 3044.30,1289.69 3043.81,1288.91 3044.13,1288.04 3045.27,1287.09"/>
    </edge>
    <edge id=":3344796623_3" function="internal">
        <lane id=":3344796623_3_0" index="0" disallow="tram rail_urban rail rail_electric ship" speed="13.89" length="5.16" shape="3042.04,1284.13 3042.21,1285.56 3042.81,1286.53 3043.83,1287.04 3045.27,1287.09"/>
    </edge>
    <edge id=":3344796623_4" function="internal">
        <lane id=":3344796623_4_0" index="0" disallow="tram rail_urban rail rail_electric ship" speed="13.89" length="9.55" shape="3042.04,1284.13 3041.81,1293.68"/>
    </edge>
    <edge id=":3344796623_5" function="internal">
        <lane id=":3344796623_5_0" index="0" disallow="tram rail_urban rail rail_electric ship" speed="13.89" length="2.41" shape="3042.04,1284.13 3041.19,1285.34 3040.35,1285.74"/>
    </edge>
    <edge id=":3344796623_9" function="internal">
        <lane id=":3344796623_9_0" index="0" speed="13.89" length="2.41" shape="3040.35,1285.74 3039.54,1285.31 3038.74,1284.05"/>
    </edge>
    <edge id=":3344796623_6" function="internal">
        <lane id=":3344796623_6_0" index="0" disallow="tram rail_urban rail rail_electric ship" speed="13.89" length="9.55" shape="3038.51,1293.60 3038.74,1284.05"/>
    </edge>
    <edge id=":3344796623_7" function="internal">
        <lane id=":3344796623_7_0" index="0" disallow="tram rail_urban rail rail_electric ship" speed="13.89" length="4.95" shape="3038.51,1293.60 3038.99,1291.02 3040.27,1289.08"/>
    </edge>
    <edge id=":3344796623_8" function="internal">
        <lane id=":3344796623_8_0" index="0" disallow="tram rail_urban rail rail_electric ship" speed="13.89" length="2.41" shape="3038.51,1293.60 3039.37,1292.38 3040.20,1291.99"/>
    </edge>
    <edge id=":3344796623_10" function="internal">
        <lane id=":3344796623_10_0" index="0" speed="13.89" length="5.45" shape="3040.27,1289.08 3042.37,1287.77 3045.27,1287.09"/>
    </edge>
    <edge id=":3344796623_11" function="internal">
        <lane id=":3344796623_11_0" index="0" speed="13.89" length="2.41" shape="3040.20,1291.99 3041.02,1292.42 3041.81,1293.68"/>
    </edge>
    <edge id=":3344796624_0" function="internal">
        <lane id=":3344796624_0_0" index="0" disallow="tram rail_urban rail rail_electric ship" speed="15.28" length="6.76" shape="2881.81,1280.61 2880.18,1279.16 2879.00,1278.92 2878.27,1279.87 2877.98,1282.03"/>
    </edge>
    <edge id=":3344796624_1" function="internal">
        <lane id=":3344796624_1_0" index="0" disallow="tram rail_urban rail rail_electric ship" speed="16.67" length="12.38" shape="2881.81,1280.61 2873.54,1271.32"/>
        <lane id=":3344796624_1_1" index="1" disallow="tram rail_urban rail rail_electric ship" speed="16.67" length="12.38" shape="2884.26,1278.40 2876.06,1269.19"/>
    </edge>
    <edge id=":3344796624_3" function="internal">
        <lane id=":3344796624_3_0" index="0" disallow="tram rail_urban rail rail_electric ship" speed="15.28" length="11.16" shape="2874.68,1281.94 2875.04,1278.75 2875.45,1276.29 2875.19,1274.00 2873.54,1271.32"/>
    </edge>
    <edge id=":3344796624_4" function="internal">
        <lane id=":3344796624_4_0" index="0" disallow="tram rail_urban rail rail_electric ship" speed="13.89" length="4.82" shape="2874.68,1281.94 2875.54,1280.73 2876.37,1280.34 2877.18,1280.77 2877.98,1282.03"/>
    </edge>
    <edge id=":3344796627_0" function="internal">
        <lane id=":3344796627_0_0" index="0" disallow="tram rail_urban rail rail_electric ship" speed="13.89" length="10.74" shape="3386.95,1287.29 3384.88,1284.88 3383.41,1282.99 3381.67,1281.65 3378.79,1280.88"/>
    </edge>
    <edge id=":3344796627_1" function="internal">
        <lane id=":3344796627_1_0" index="0" disallow="tram rail_urban rail rail_electric ship" speed="13.89" length="15.62" shape="3386.95,1287.29 3383.99,1283.48 3383.66,1280.64 3385.94,1278.76 3390.84,1277.84"/>
    </edge>
    <edge id=":3344796627_2" function="internal">
        <lane id=":3344796627_2_0" index="0" disallow="tram rail_urban rail rail_electric ship" speed="13.89" length="4.82" shape="3386.95,1287.29 3386.66,1285.83 3386.95,1284.96 3387.83,1284.67 3389.29,1284.97"/>
    </edge>
    <edge id=":3344796627_3" function="internal">
        <lane id=":3344796627_3_0" index="0" disallow="tram rail_urban rail rail_electric ship" speed="13.89" length="6.31" shape="3390.86,1281.15 3388.88,1281.52 3387.96,1282.28 3388.09,1283.43 3389.29,1284.97"/>
    </edge>
    <edge id=":3344796627_4" function="internal">
        <lane id=":3344796627_4_0" index="0" disallow="tram rail_urban rail rail_electric ship" speed="13.89" length="12.09" shape="3390.86,1281.15 3387.57,1281.34 3384.82,1281.38 3382.07,1281.23 3378.79,1280.88"/>
    </edge>
    <edge id=":3344796627_5" function="internal">
        <lane id=":3344796627_5_0" index="0" disallow="tram rail_urban rail rail_electric ship" speed="13.89" length="2.41" shape="3390.86,1281.15 3389.61,1280.33 3389.19,1279.50"/>
    </edge>
    <edge id=":3344796627_9" function="internal">
        <lane id=":3344796627_9_0" index="0" speed="13.89" length="2.41" shape="3389.19,1279.50 3389.60,1278.67 3390.84,1277.84"/>
    </edge>
    <edge id=":3344796627_6" function="internal">
        <lane id=":3344796627_6_0" index="0" disallow="tram rail_urban rail rail_electric ship" speed="13.89" length="11.67" shape="3379.20,1277.61 3382.41,1277.95 3385.01,1278.09 3387.61,1278.04 3390.84,1277.84"/>
    </edge>
    <edge id=":3344796627_7" function="internal">
        <lane id=":3344796627_7_0" index="0" disallow="tram rail_urban rail rail_electric ship" speed="13.89" length="12.80" shape="3379.20,1277.61 3382.37,1278.52 3384.78,1280.19 3386.92,1282.41 3389.29,1284.97"/>
    </edge>
    <edge id=":3344796627_8" function="internal">
        <lane id=":3344796627_8_0" index="0" disallow="tram rail_urban rail rail_electric ship" speed="13.89" length="2.41" shape="3379.20,1277.61 3380.33,1278.58 3380.63,1279.45"/>
    </edge>
    <edge id=":3344796627_10" function="internal">
        <lane id=":3344796627_10_0" index="0" speed="13.89" length="2.41" shape="3380.63,1279.45 3380.12,1280.22 3378.79,1280.88"/>
    </edge>
    <edge id=":3344796630_0" function="internal">
        <lane id=":3344796630_0_0" index="0" disallow="tram rail_urban rail rail_electric ship" speed="13.89" length="6.15" shape="3162.06,1277.80 3155.95,1278.43"/>
    </edge>
    <edge id=":3344796630_1" function="internal">
        <lane id=":3344796630_1_0" index="0" disallow="tram rail_urban rail rail_electric ship" speed="13.89" length="3.04" shape="3162.06,1277.80 3160.60,1277.54 3159.51,1276.43"/>
    </edge>
    <edge id=":3344796630_2" function="internal">
        <lane id=":3344796630_2_0" index="0" disallow="tram rail_urban rail rail_electric ship" speed="13.89" length="2.41" shape="3162.06,1277.80 3160.75,1277.10 3160.26,1276.32"/>
    </edge>
    <edge id=":3344796630_6" function="internal">
        <lane id=":3344796630_6_0" index="0" speed="13.89" length="4.92" shape="3159.51,1276.43 3158.78,1274.47 3158.41,1271.66"/>
    </edge>
    <edge id=":3344796630_7" function="internal">
        <lane id=":3344796630_7_0" index="0" speed="13.89" length="2.41" shape="3160.26,1276.32 3160.59,1275.46 3161.74,1274.52"/>
    </edge>
    <edge id=":3344796630_3" function="internal">
        <lane id=":3344796630_3_0" index="0" disallow="tram rail_urban rail rail_electric ship" speed="13.89" length="5.06" shape="3155.59,1275.15 3156.89,1274.81 3157.80,1274.11 3158.30,1273.07 3158.41,1271.66"/>
    </edge>
    <edge id=":3344796630_4" function="internal">
        <lane id=":3344796630_4_0" index="0" disallow="tram rail_urban rail rail_electric ship" speed="13.89" length="6.18" shape="3155.59,1275.15 3161.74,1274.52"/>
    </edge>
    <edge id=":3344796630_5" function="internal">
        <lane id=":3344796630_5_0" index="0" disallow="tram rail_urban rail rail_electric ship" speed="13.89" length="2.41" shape="3155.59,1275.15 3156.91,1275.83 3157.41,1276.61"/>
    </edge>
    <edge id=":3344796630_8" function="internal">
        <lane id=":3344796630_8_0" index="0" speed="13.89" length="2.41" shape="3157.41,1276.61 3157.09,1277.47 3155.95,1278.43"/>
    </edge>
    <edge id=":3344796632_0" function="internal">
        <lane id=":3344796632_0_0" index="0" disallow="tram rail_urban rail rail_electric ship" speed="13.89" length="6.20" shape="3172.05,1276.84 3165.88,1277.43"/>
    </edge>
    <edge id=":3344796632_1" function="internal">
        <lane id=":3344796632_1_0" index="0" disallow="tram rail_urban rail rail_electric ship" speed="13.89" length="2.41" shape="3172.05,1276.84 3170.74,1276.14 3170.25,1275.35"/>
    </edge>
    <edge id=":3344796632_6" function="internal">
        <lane id=":3344796632_6_0" index="0" speed="13.89" length="2.41" shape="3170.25,1275.35 3170.58,1274.49 3171.74,1273.55"/>
    </edge>
    <edge id=":3344796632_2" function="internal">
        <lane id=":3344796632_2_0" index="0" disallow="tram rail_urban rail rail_electric ship" speed="13.89" length="5.00" shape="3168.35,1270.76 3168.68,1272.10 3169.35,1273.00 3170.37,1273.49 3171.74,1273.55"/>
    </edge>
    <edge id=":3344796632_3" function="internal">
        <lane id=":3344796632_3_0" index="0" disallow="tram rail_urban rail rail_electric ship" speed="13.89" length="7.85" shape="3168.35,1270.76 3168.43,1273.57 3168.04,1275.62 3167.20,1276.91 3165.88,1277.43"/>
    </edge>
    <edge id=":3344796632_4" function="internal">
        <lane id=":3344796632_4_0" index="0" disallow="tram rail_urban rail rail_electric ship" speed="13.89" length="6.20" shape="3165.56,1274.15 3171.74,1273.55"/>
    </edge>
    <edge id=":3344796632_5" function="internal">
        <lane id=":3344796632_5_0" index="0" disallow="tram rail_urban rail rail_electric ship" speed="13.89" length="2.41" shape="3165.56,1274.15 3166.88,1274.85 3167.37,1275.63"/>
    </edge>
    <edge id=":3344796632_7" function="internal">
        <lane id=":3344796632_7_0" index="0" speed="13.89" length="2.41" shape="3167.37,1275.63 3167.03,1276.49 3165.88,1277.43"/>
    </edge>
    <edge id=":3344796638_0" function="internal">
        <lane id=":3344796638_0_0" index="0" disallow="tram rail_urban rail rail_electric ship" speed="13.89" length="5.47" shape="3333.94,1275.35 3332.36,1275.38 3331.35,1275.93 3330.90,1276.99 3331.02,1278.57"/>
    </edge>
    <edge id=":3344796638_1" function="internal">
        <lane id=":3344796638_1_0" index="0" disallow="tram rail_urban rail rail_electric ship" speed="13.89" length="2.41" shape="3333.94,1275.35 3332.82,1274.38 3332.51,1273.51"/>
    </edge>
    <edge id=":3344796638_4" function="internal">
        <lane id=":3344796638_4_0" index="0" speed="13.89" length="2.41" shape="3332.51,1273.51 3333.02,1272.75 3334.35,1272.08"/>
    </edge>
    <edge id=":3344796638_2" function="internal">
        <lane id=":3344796638_2_0" index="0" disallow="tram rail_urban rail rail_electric ship" speed="13.89" length="7.57" shape="3327.27,1269.78 3329.16,1270.96 3330.58,1271.55 3332.12,1271.82 3334.35,1272.08"/>
    </edge>
    <edge id=":3344796638_3" function="internal">
        <lane id=":3344796638_3_0" index="0" disallow="tram rail_urban rail rail_electric ship" speed="13.89" length="9.99" shape="3327.27,1269.78 3329.38,1271.63 3330.24,1273.43 3330.56,1275.61 3331.02,1278.57"/>
    </edge>
    <edge id=":3344796653_0" function="internal">
        <lane id=":3344796653_0_0" index="0" disallow="tram rail_urban rail rail_electric ship" speed="13.89" length="9.47" shape="2676.50,1227.10 2670.19,1234.17"/>
    </edge>
    <edge id=":3344796653_1" function="internal">
        <lane id=":3344796653_1_0" index="0" disallow="tram rail_urban rail rail_electric ship" speed="13.89" length="4.96" shape="2676.50,1227.10 2674.45,1228.76 2672.22,1229.40"/>
    </edge>
    <edge id=":3344796653_2" function="internal">
        <lane id=":3344796653_2_0" index="0" disallow="tram rail_urban rail rail_electric ship" speed="13.89" length="2.41" shape="2676.50,1227.10 2675.06,1227.47 2674.17,1227.22"/>
    </edge>
    <edge id=":3344796653_9" function="internal">
        <lane id=":3344796653_9_0" index="0" speed="13.89" length="5.39" shape="2672.22,1229.40 2669.80,1229.02 2667.20,1227.64"/>
    </edge>
    <edge id=":3344796653_10" function="internal">
        <lane id=":3344796653_10_0" index="0" speed="13.89" length="2.41" shape="2674.17,1227.22 2673.84,1226.36 2674.06,1224.89"/>
    </edge>
    <edge id=":3344796653_3" function="internal">
        <lane id=":3344796653_3_0" index="0" disallow="tram rail_urban rail rail_electric ship" speed="13.89" length="5.50" shape="2669.10,1224.94 2670.53,1225.72 2671.84,1225.98 2673.01,1225.70 2674.06,1224.89"/>
    </edge>
    <edge id=":3344796653_4" function="internal">
        <lane id=":3344796653_4_0" index="0" disallow="tram rail_urban rail rail_electric ship" speed="13.89" length="10.89" shape="2669.10,1224.94 2671.30,1227.02 2672.22,1229.25 2671.85,1231.63 2670.19,1234.17"/>
    </edge>
    <edge id=":3344796653_5" function="internal">
        <lane id=":3344796653_5_0" index="0" disallow="tram rail_urban rail rail_electric ship" speed="13.89" length="4.82" shape="2669.10,1224.94 2669.63,1226.32 2669.50,1227.24 2668.69,1227.67 2667.20,1227.64"/>
    </edge>
    <edge id=":3344796653_6" function="internal">
        <lane id=":3344796653_6_0" index="0" disallow="tram rail_urban rail rail_electric ship" speed="13.89" length="5.14" shape="2667.72,1231.99 2668.50,1230.80 2668.67,1229.67 2668.24,1228.62 2667.20,1227.64"/>
    </edge>
    <edge id=":3344796653_7" function="internal">
        <lane id=":3344796653_7_0" index="0" disallow="tram rail_urban rail rail_electric ship" speed="13.89" length="9.52" shape="2667.72,1231.99 2674.06,1224.89"/>
    </edge>
    <edge id=":3344796653_8" function="internal">
        <lane id=":3344796653_8_0" index="0" disallow="tram rail_urban rail rail_electric ship" speed="13.89" length="2.41" shape="2667.72,1231.99 2669.15,1231.61 2670.05,1231.84"/>
    </edge>
    <edge id=":3344796653_11" function="internal">
        <lane id=":3344796653_11_0" index="0" speed="13.89" length="2.41" shape="2670.05,1231.84 2670.39,1232.70 2670.19,1234.17"/>
    </edge>