<configuration>
   <input>
       <net-file value="ufma.net.xml"/>
       <route-files value="ufma_punctuality.rou.xml"/>
   </input>
    <output>
        <fcd-output value="[PUNCTUALITY]ufmaTrace.xml"/>
    </output>
</configuration>
