<?xml version="1.0" encoding="UTF-8"?>

<!-- generated on Wed 25 Jul 2018 02:31:58 PM -03 by Netedit Version 0.32.0
<?xml version="1.0" encoding="UTF-8"?>

<configuration xmlns:xsi="http://www.w3.org/2001/XMLSchema-instance" xsi:noNamespaceSchemaLocation="http://sumo.dlr.de/xsd/netconvertConfiguration.xsd">

    <input>
        <sumo-net-file value="ufma_large.net.xml"/>
    </input>

    <output>
        <output-file value="/home/sumo/SumoWorkspace/TraciSumoController/ufma_large_duplicated.net.xml"/>
    </output>

    <processing>
        <no-turnarounds value="true"/>
        <offset.disable-normalization value="true"/>
        <lefthand value="false"/>
        <junctions.corner-detail value="0"/>
        <rectangular-lane-cut value="false"/>
        <walkingareas value="false"/>
    </processing>

</configuration>
-->

<net version="0.27" xmlns:xsi="http://www.w3.org/2001/XMLSchema-instance" xsi:noNamespaceSchemaLocation="http://sumo.dlr.de/xsd/net_file.xsd">

    <location netOffset="-573792.80,283689.71" convBoundary="2513.91,197.94,3674.31,1960.68" origBoundary="-44.336197,-2.566432,-44.300236,-2.547643" projParameter="+proj=utm +zone=23 +ellps=WGS84 +datum=WGS84 +units=m +no_defs"/>

    <type id="highway.bridleway" priority="1" numLanes="1" speed="2.78" allow="pedestrian" oneway="1" width="2.00"/>
    <type id="highway.bus_guideway" priority="1" numLanes="1" speed="27.78" allow="bus" oneway="1"/>
    <type id="highway.cycleway" priority="1" numLanes="1" speed="8.33" allow="bicycle" oneway="0" width="1.00"/>
    <type id="highway.footway" priority="1" numLanes="1" speed="2.78" allow="pedestrian" oneway="1" width="2.00"/>
    <type id="highway.ford" priority="1" numLanes="1" speed="2.78" allow="army" oneway="0"/>
    <type id="highway.living_street" priority="3" numLanes="1" speed="2.78" disallow="tram rail_urban rail rail_electric ship" oneway="0"/>
    <type id="highway.motorway" priority="13" numLanes="2" speed="44.44" allow="private emergency authority army vip passenger hov taxi bus coach delivery truck trailer motorcycle evehicle custom1 custom2" oneway="1"/>
    <type id="highway.motorway_link" priority="12" numLanes="1" speed="22.22" allow="private emergency authority army vip passenger hov taxi bus coach delivery truck trailer motorcycle evehicle custom1 custom2" oneway="1"/>
    <type id="highway.path" priority="1" numLanes="1" speed="2.78" allow="bicycle pedestrian" oneway="1" width="2.00"/>
    <type id="highway.pedestrian" priority="1" numLanes="1" speed="2.78" allow="pedestrian" oneway="1" width="2.00"/>
    <type id="highway.primary" priority="9" numLanes="2" speed="27.78" disallow="tram rail_urban rail rail_electric ship" oneway="0"/>
    <type id="highway.primary_link" priority="8" numLanes="1" speed="22.22" disallow="tram rail_urban rail rail_electric ship" oneway="0"/>
    <type id="highway.raceway" priority="14" numLanes="2" speed="83.33" allow="vip" oneway="0"/>
    <type id="highway.residential" priority="4" numLanes="1" speed="13.89" disallow="tram rail_urban rail rail_electric ship" oneway="0"/>
    <type id="highway.secondary" priority="7" numLanes="2" speed="27.78" disallow="tram rail_urban rail rail_electric ship" oneway="0"/>
    <type id="highway.secondary_link" priority="6" numLanes="1" speed="22.22" disallow="tram rail_urban rail rail_electric ship" oneway="0"/>
    <type id="highway.service" priority="2" numLanes="1" speed="5.56" allow="delivery bicycle pedestrian" oneway="0"/>
    <type id="highway.stairs" priority="1" numLanes="1" speed="1.39" allow="pedestrian" oneway="1" width="2.00"/>
    <type id="highway.step" priority="1" numLanes="1" speed="1.39" allow="pedestrian" oneway="1" width="2.00"/>
    <type id="highway.steps" priority="1" numLanes="1" speed="1.39" allow="pedestrian" oneway="1" width="2.00"/>
    <type id="highway.tertiary" priority="6" numLanes="1" speed="22.22" disallow="tram rail_urban rail rail_electric ship" oneway="0"/>
    <type id="highway.tertiary_link" priority="5" numLanes="1" speed="22.22" disallow="tram rail_urban rail rail_electric ship" oneway="0"/>
    <type id="highway.track" priority="1" numLanes="1" speed="5.56" disallow="tram rail_urban rail rail_electric ship" oneway="0"/>
    <type id="highway.trunk" priority="11" numLanes="2" speed="27.78" disallow="tram rail_urban rail rail_electric bicycle pedestrian ship" oneway="0"/>
    <type id="highway.trunk_link" priority="10" numLanes="1" speed="22.22" disallow="tram rail_urban rail rail_electric bicycle pedestrian ship" oneway="0"/>
    <type id="highway.unclassified" priority="5" numLanes="1" speed="13.89" disallow="tram rail_urban rail rail_electric ship" oneway="0"/>
    <type id="highway.unsurfaced" priority="1" numLanes="1" speed="8.33" disallow="tram rail_urban rail rail_electric ship" oneway="0"/>
    <type id="railway.light_rail" priority="15" numLanes="1" speed="27.78" allow="rail_urban" oneway="1"/>
    <type id="railway.preserved" priority="15" numLanes="1" speed="27.78" allow="rail" oneway="1"/>
    <type id="railway.rail" priority="15" numLanes="1" speed="83.33" allow="rail rail_electric" oneway="1"/>
    <type id="railway.subway" priority="15" numLanes="1" speed="27.78" allow="rail_urban" oneway="1"/>
    <type id="railway.tram" priority="15" numLanes="1" speed="13.89" allow="tram" oneway="1"/>

    <edge id=":3344796526_0" function="internal">
        <lane id=":3344796526_0_0" index="0" disallow="tram rail_urban rail rail_electric ship" speed="15.28" length="30.20" shape="3420.96,1835.02 3423.25,1839.95 3426.81,1846.91 3431.18,1854.47 3435.88,1861.20"/>
    </edge>
    <edge id=":3344796526_1" function="internal">
        <lane id=":3344796526_1_0" index="0" disallow="tram rail_urban rail rail_electric ship" speed="16.67" length="30.18" shape="3417.98,1836.97 3435.88,1861.20"/>
        <lane id=":3344796526_1_1" index="1" disallow="tram rail_urban rail rail_electric ship" speed="16.67" length="30.18" shape="3415.34,1838.95 3433.30,1863.27"/>
    </edge>
    <edge id=":3344796537_0" function="internal">
        <lane id=":3344796537_0_0" index="0" disallow="tram rail_urban rail rail_electric ship" speed="13.89" length="5.18" shape="3418.41,1706.90 3417.55,1708.17 3416.97,1709.07 3416.53,1710.02 3416.08,1711.48"/>
    </edge>
    <edge id=":3344796537_1" function="internal">
        <lane id=":3344796537_1_0" index="0" disallow="tram rail_urban rail rail_electric ship" speed="13.89" length="2.54" shape="3418.41,1706.90 3417.04,1707.49 3416.13,1707.39 3416.06,1707.28"/>
    </edge>
    <edge id=":3344796537_4" function="internal">
        <lane id=":3344796537_4_0" index="0" speed="13.89" length="2.28" shape="3416.06,1707.28 3415.66,1706.59 3415.64,1705.10"/>
    </edge>
    <edge id=":3344796537_2" function="internal">
        <lane id=":3344796537_2_0" index="0" disallow="tram rail_urban rail rail_electric ship" speed="13.89" length="3.67" shape="3413.06,1707.64 3413.97,1707.06 3414.56,1706.58 3415.04,1706.01 3415.64,1705.10"/>
    </edge>
    <edge id=":3344796537_3" function="internal">
        <lane id=":3344796537_3_0" index="0" disallow="tram rail_urban rail rail_electric ship" speed="13.89" length="3.56" shape="3413.06,1707.64 3415.08,1706.74 3416.26,1707.08 3416.28,1707.20"/>
    </edge>
    <edge id=":3344796537_5" function="internal">
        <lane id=":3344796537_5_0" index="0" speed="13.89" length="4.36" shape="3416.28,1707.20 3416.59,1708.65 3416.08,1711.48"/>
    </edge>
    <edge id=":3344796538_0" function="internal">
        <lane id=":3344796538_0_0" index="0" disallow="tram rail_urban rail rail_electric ship" speed="15.28" length="21.48" shape="3306.66,1693.32 3311.46,1698.20 3315.83,1701.92 3319.67,1704.84 3322.87,1707.34"/>
    </edge>
    <edge id=":3344796538_1" function="internal">
        <lane id=":3344796538_1_0" index="0" disallow="tram rail_urban rail rail_electric ship" speed="16.67" length="21.44" shape="3306.66,1693.32 3320.45,1709.77"/>
        <lane id=":3344796538_1_1" index="1" disallow="tram rail_urban rail rail_electric ship" speed="16.67" length="21.44" shape="3304.20,1695.51 3317.94,1711.92"/>
    </edge>
    <edge id=":3344796539_0" function="internal">
        <lane id=":3344796539_0_0" index="0" disallow="tram rail_urban rail rail_electric ship" speed="16.67" length="8.06" shape="3255.09,1692.04 3249.31,1686.46"/>
        <lane id=":3344796539_0_1" index="1" disallow="tram rail_urban rail rail_electric ship" speed="16.67" length="8.06" shape="3257.37,1689.65 3251.55,1684.04"/>
    </edge>
    <edge id=":3344796539_2" function="internal">
        <lane id=":3344796539_2_0" index="0" disallow="tram rail_urban rail rail_electric ship" speed="15.28" length="7.92" shape="3258.85,1684.98 3256.93,1685.74 3255.07,1685.84 3253.28,1685.27 3251.55,1684.04"/>
    </edge>
    <edge id=":3344796543_0" function="internal">
        <lane id=":3344796543_0_0" index="0" disallow="tram rail_urban rail rail_electric ship" speed="16.67" length="10.46" shape="3268.93,1650.85 3275.92,1658.78"/>
        <lane id=":3344796543_0_1" index="1" disallow="tram rail_urban rail rail_electric ship" speed="16.67" length="10.46" shape="3266.63,1653.22 3273.46,1660.98"/>
    </edge>
    <edge id=":3344796543_2" function="internal">
        <lane id=":3344796543_2_0" index="0" disallow="tram rail_urban rail rail_electric ship" speed="15.28" length="10.35" shape="3266.63,1653.22 3268.06,1655.03 3269.03,1657.23 3269.55,1659.83 3269.60,1662.81"/>
    </edge>
    <edge id=":3344796546_0" function="internal">
        <lane id=":3344796546_0_0" index="0" disallow="tram rail_urban rail rail_electric ship" speed="15.28" length="7.68" shape="3227.05,1601.63 3227.09,1603.90 3227.43,1605.86 3228.07,1607.51 3229.02,1608.86"/>
    </edge>
    <edge id=":3344796546_1" function="internal">
        <lane id=":3344796546_1_0" index="0" disallow="tram rail_urban rail rail_electric ship" speed="16.67" length="8.02" shape="3223.19,1603.18 3229.02,1608.86"/>
        <lane id=":3344796546_1_1" index="1" disallow="tram rail_urban rail rail_electric ship" speed="16.67" length="8.02" shape="3220.92,1605.58 3226.59,1611.09"/>
    </edge>
    <edge id=":3344796548_0" function="internal">
        <lane id=":3344796548_0_0" index="0" disallow="tram rail_urban rail rail_electric ship" speed="13.89" length="9.41" shape="3323.98,1610.35 3322.80,1607.81 3322.00,1606.04 3320.97,1604.44 3319.12,1602.39"/>
    </edge>
    <edge id=":3344796548_1" function="internal">
        <lane id=":3344796548_1_0" index="0" disallow="tram rail_urban rail rail_electric ship" speed="13.89" length="6.18" shape="3323.98,1610.35 3322.61,1606.43 3322.97,1604.43"/>
    </edge>
    <edge id=":3344796548_2" function="internal">
        <lane id=":3344796548_2_0" index="0" disallow="tram rail_urban rail rail_electric ship" speed="13.89" length="2.41" shape="3323.98,1610.35 3324.16,1608.87 3324.71,1608.13"/>
    </edge>
    <edge id=":3344796548_9" function="internal">
        <lane id=":3344796548_9_0" index="0" speed="13.89" length="7.59" shape="3322.97,1604.43 3323.09,1603.73 3325.40,1602.27 3329.54,1602.03"/>
    </edge>
    <edge id=":3344796548_10" function="internal">
        <lane id=":3344796548_10_0" index="0" speed="13.89" length="2.41" shape="3324.71,1608.13 3325.63,1608.13 3326.93,1608.87"/>
    </edge>
    <edge id=":3344796548_3" function="internal">
        <lane id=":3344796548_3_0" index="0" disallow="tram rail_urban rail rail_electric ship" speed="13.89" length="5.87" shape="3329.30,1605.32 3327.53,1605.42 3326.55,1606.05 3326.35,1607.20 3326.93,1608.87"/>
    </edge>
    <edge id=":3344796548_4" function="internal">
        <lane id=":3344796548_4_0" index="0" disallow="tram rail_urban rail rail_electric ship" speed="13.89" length="10.98" shape="3329.30,1605.32 3326.10,1605.21 3323.66,1605.04 3321.50,1604.29 3319.12,1602.39"/>
    </edge>
    <edge id=":3344796548_5" function="internal">
        <lane id=":3344796548_5_0" index="0" disallow="tram rail_urban rail rail_electric ship" speed="13.89" length="4.82" shape="3329.30,1605.32 3328.12,1604.41 3327.77,1603.56 3328.25,1602.76 3329.54,1602.03"/>
    </edge>
    <edge id=":3344796548_6" function="internal">
        <lane id=":3344796548_6_0" index="0" disallow="tram rail_urban rail rail_electric ship" speed="13.89" length="8.67" shape="3321.46,1600.06 3323.37,1601.56 3325.04,1602.03 3326.94,1602.01 3329.54,1602.03"/>
    </edge>
    <edge id=":3344796548_7" function="internal">
        <lane id=":3344796548_7_0" index="0" disallow="tram rail_urban rail rail_electric ship" speed="13.89" length="10.45" shape="3321.46,1600.06 3323.48,1602.30 3324.67,1604.11 3325.62,1606.10 3326.93,1608.87"/>
    </edge>
    <edge id=":3344796548_8" function="internal">
        <lane id=":3344796548_8_0" index="0" disallow="tram rail_urban rail rail_electric ship" speed="13.89" length="2.55" shape="3321.46,1600.06 3321.74,1601.52 3321.45,1602.39 3321.32,1602.43"/>
    </edge>
    <edge id=":3344796548_11" function="internal">
        <lane id=":3344796548_11_0" index="0" speed="13.89" length="2.27" shape="3321.32,1602.43 3320.58,1602.68 3319.12,1602.39"/>
    </edge>
    <edge id=":3344796553_0" function="internal">
        <lane id=":3344796553_0_0" index="0" disallow="tram rail_urban rail rail_electric ship" speed="13.89" length="2.79" shape="3188.57,1594.55 3189.29,1594.13 3189.80,1593.87 3190.27,1593.56 3190.85,1592.98"/>
    </edge>
    <edge id=":3344796557_0" function="internal">
        <lane id=":3344796557_0_0" index="0" disallow="tram rail_urban rail rail_electric ship" speed="15.28" length="7.84" shape="3199.00,1580.39 3200.71,1581.62 3202.49,1582.31 3204.34,1582.46 3206.27,1582.07"/>
    </edge>
    <edge id=":3344796557_1" function="internal">
        <lane id=":3344796557_1_0" index="0" disallow="tram rail_urban rail rail_electric ship" speed="16.67" length="8.59" shape="3199.00,1580.39 3205.34,1586.26"/>
        <lane id=":3344796557_1_1" index="1" disallow="tram rail_urban rail rail_electric ship" speed="16.67" length="8.59" shape="3196.80,1582.86 3203.07,1588.65"/>
    </edge>
    <edge id=":3344796557_3" function="internal">
        <lane id=":3344796557_3_0" index="0" disallow="tram rail_urban rail rail_electric ship" speed="13.89" length="10.93" shape="3196.77,1587.24 3199.18,1585.28 3201.16,1584.02 3203.32,1583.09 3206.27,1582.07"/>
    </edge>
    <edge id=":3344796557_4" function="internal">
        <lane id=":3344796557_4_0" index="0" disallow="tram rail_urban rail rail_electric ship" speed="15.28" length="7.13" shape="3196.77,1587.24 3198.11,1586.51 3199.60,1586.51 3201.26,1587.22 3203.07,1588.65"/>
    </edge>
    <edge id=":3344796570_0" function="internal">
        <lane id=":3344796570_0_0" index="0" disallow="tram rail_urban rail rail_electric ship" speed="13.89" length="4.72" shape="3279.27,1562.43 3278.27,1561.66 3277.22,1561.32 3276.12,1561.40 3274.97,1561.90"/>
    </edge>
    <edge id=":3344796570_1" function="internal">
        <lane id=":3344796570_1_0" index="0" disallow="tram rail_urban rail rail_electric ship" speed="13.89" length="2.67" shape="3279.27,1562.43 3278.98,1560.97 3279.27,1560.10 3279.52,1560.01"/>
    </edge>
    <edge id=":3344796570_4" function="internal">
        <lane id=":3344796570_4_0" index="0" speed="13.89" length="2.15" shape="3279.52,1560.01 3280.15,1559.81 3281.61,1560.10"/>
    </edge>
    <edge id=":3344796570_2" function="internal">
        <lane id=":3344796570_2_0" index="0" disallow="tram rail_urban rail rail_electric ship" speed="13.89" length="4.78" shape="3280.93,1555.74 3280.48,1556.89 3280.44,1558.01 3280.82,1559.08 3281.61,1560.10"/>
    </edge>
    <edge id=":3344796570_3" function="internal">
        <lane id=":3344796570_3_0" index="0" disallow="tram rail_urban rail rail_electric ship" speed="13.89" length="8.75" shape="3280.93,1555.74 3279.63,1557.97 3278.54,1559.39 3277.15,1560.53 3274.97,1561.90"/>
    </edge>
    <edge id=":3344796578_0" function="internal">
        <lane id=":3344796578_0_0" index="0" disallow="tram rail_urban rail rail_electric ship" speed="13.89" length="7.18" shape="3286.67,1539.99 3285.00,1541.76 3283.83,1543.34 3283.17,1544.74 3283.01,1545.96"/>
    </edge>
    <edge id=":3344796578_1" function="internal">
        <lane id=":3344796578_1_0" index="0" disallow="tram rail_urban rail rail_electric ship" speed="13.89" length="9.72" shape="3279.69,1537.27 3281.64,1539.25 3282.52,1541.01 3282.82,1543.07 3283.01,1545.96"/>
    </edge>
    <edge id=":3344796580_0" function="internal">
        <lane id=":3344796580_0_0" index="0" disallow="tram rail_urban rail rail_electric ship" speed="13.89" length="9.25" shape="3251.45,1549.09 3251.17,1545.65 3250.76,1543.02 3250.19,1541.20 3249.49,1540.18"/>
    </edge>
    <edge id=":3344796580_1" function="internal">
        <lane id=":3344796580_1_0" index="0" disallow="tram rail_urban rail rail_electric ship" speed="13.89" length="10.21" shape="3251.45,1549.09 3251.33,1546.08 3251.53,1543.98 3252.28,1542.02 3253.81,1539.45"/>
    </edge>
    <edge id=":3344796580_2" function="internal">
        <lane id=":3344796580_2_0" index="0" disallow="tram rail_urban rail rail_electric ship" speed="13.89" length="5.74" shape="3247.58,1547.77 3248.51,1546.36 3248.80,1545.06 3248.45,1543.87 3247.45,1542.78"/>
    </edge>
    <edge id=":3344796580_3" function="internal">
        <lane id=":3344796580_3_0" index="0" disallow="tram rail_urban rail rail_electric ship" speed="13.89" length="10.41" shape="3247.58,1547.77 3249.55,1545.46 3250.90,1543.76 3252.16,1541.99 3253.81,1539.45"/>
    </edge>
    <edge id=":3344796583_0" function="internal">
        <lane id=":3344796583_0_0" index="0" disallow="tram rail_urban rail rail_electric ship" speed="13.89" length="5.41" shape="3255.34,1532.02 3256.70,1532.87 3258.00,1533.28 3259.21,1533.26 3260.36,1532.81"/>
    </edge>
    <edge id=":3344796583_1" function="internal">
        <lane id=":3344796583_1_0" index="0" disallow="tram rail_urban rail rail_electric ship" speed="13.89" length="8.90" shape="3254.12,1538.96 3255.56,1536.76 3256.72,1535.35 3258.13,1534.21 3260.36,1532.81"/>
    </edge>
    <edge id=":3344796584_0" function="internal">
        <lane id=":3344796584_0_0" index="0" disallow="tram rail_urban rail rail_electric ship" speed="13.89" length="6.56" shape="3270.73,1531.70 3271.95,1531.85 3273.34,1531.53 3274.90,1530.74 3276.64,1529.48"/>
    </edge>
    <edge id=":3344796584_1" function="internal">
        <lane id=":3344796584_1_0" index="0" disallow="tram rail_urban rail rail_electric ship" speed="13.89" length="8.28" shape="3270.73,1531.70 3273.46,1532.48 3275.70,1532.80 3277.46,1532.65 3278.74,1532.03"/>
    </edge>
    <edge id=":3344796584_2" function="internal">
        <lane id=":3344796584_2_0" index="0" disallow="tram rail_urban rail rail_electric ship" speed="13.89" length="9.35" shape="3270.73,1531.70 3273.33,1532.64 3275.03,1533.49 3276.58,1534.61 3278.69,1536.41"/>
    </edge>
    <edge id=":3344796623_0" function="internal">
        <lane id=":3344796623_0_0" index="0" disallow="tram rail_urban rail rail_electric ship" speed="13.89" length="6.35" shape="3046.41,1293.61 3044.39,1294.00 3042.94,1294.70 3042.05,1295.70 3041.73,1297.00"/>
    </edge>
    <edge id=":3344796623_1" function="internal">
        <lane id=":3344796623_1_0" index="0" disallow="tram rail_urban rail rail_electric ship" speed="13.89" length="14.02" shape="3046.05,1290.32 3042.80,1290.03 3040.51,1288.33 3039.18,1285.23 3038.82,1280.72"/>
    </edge>
    <edge id=":3344796623_2" function="internal">
        <lane id=":3344796623_2_0" index="0" disallow="tram rail_urban rail rail_electric ship" speed="13.89" length="4.82" shape="3046.05,1290.32 3044.73,1289.64 3044.24,1288.86 3044.56,1288.00 3045.70,1287.04"/>
    </edge>
    <edge id=":3344796623_3" function="internal">
        <lane id=":3344796623_3_0" index="0" disallow="tram rail_urban rail rail_electric ship" speed="13.89" length="5.16" shape="3042.12,1280.80 3042.29,1282.23 3042.88,1283.20 3043.90,1283.71 3045.34,1283.76"/>
    </edge>
    <edge id=":3344796623_4" function="internal">
        <lane id=":3344796623_4_0" index="0" disallow="tram rail_urban rail rail_electric ship" speed="13.89" length="16.21" shape="3042.12,1280.80 3041.73,1297.00"/>
    </edge>
    <edge id=":3344796623_5" function="internal">
        <lane id=":3344796623_5_0" index="0" disallow="tram rail_urban rail rail_electric ship" speed="13.89" length="4.82" shape="3042.12,1280.80 3041.26,1282.01 3040.43,1282.41 3039.61,1281.98 3038.82,1280.72"/>
    </edge>
    <edge id=":3344796623_6" function="internal">
        <lane id=":3344796623_6_0" index="0" disallow="tram rail_urban rail rail_electric ship" speed="13.89" length="16.21" shape="3038.43,1296.92 3038.82,1280.72"/>
    </edge>
    <edge id=":3344796623_7" function="internal">
        <lane id=":3344796623_7_0" index="0" disallow="tram rail_urban rail rail_electric ship" speed="13.89" length="13.57" shape="3038.43,1296.92 3038.97,1292.89 3040.36,1289.89 3042.60,1287.95 3045.70,1287.04"/>
    </edge>
    <edge id=":3344796623_8" function="internal">
        <lane id=":3344796623_8_0" index="0" disallow="tram rail_urban rail rail_electric ship" speed="13.89" length="4.82" shape="3038.43,1296.92 3039.29,1295.71 3040.12,1295.31 3040.94,1295.75 3041.73,1297.00"/>
    </edge>
    <edge id=":3344796627_0" function="internal">
        <lane id=":3344796627_0_0" index="0" disallow="tram rail_urban rail rail_electric ship" speed="13.89" length="10.74" shape="3386.94,1287.29 3384.88,1284.88 3383.41,1282.99 3381.67,1281.65 3378.79,1280.89"/>
    </edge>
    <edge id=":3344796627_1" function="internal">
        <lane id=":3344796627_1_0" index="0" disallow="tram rail_urban rail rail_electric ship" speed="13.89" length="15.62" shape="3386.94,1287.29 3383.99,1283.49 3383.66,1280.64 3385.94,1278.76 3390.84,1277.84"/>
    </edge>
    <edge id=":3344796627_2" function="internal">
        <lane id=":3344796627_2_0" index="0" disallow="tram rail_urban rail rail_electric ship" speed="13.89" length="4.82" shape="3386.94,1287.29 3386.66,1285.83 3386.95,1284.96 3387.83,1284.67 3389.29,1284.97"/>
    </edge>
    <edge id=":3344796627_3" function="internal">
        <lane id=":3344796627_3_0" index="0" disallow="tram rail_urban rail rail_electric ship" speed="13.89" length="6.31" shape="3390.85,1281.15 3388.88,1281.52 3387.96,1282.28 3388.09,1283.43 3389.29,1284.97"/>
    </edge>
    <edge id=":3344796627_4" function="internal">
        <lane id=":3344796627_4_0" index="0" disallow="tram rail_urban rail rail_electric ship" speed="13.89" length="12.09" shape="3390.85,1281.15 3387.56,1281.34 3384.81,1281.38 3382.07,1281.23 3378.79,1280.89"/>
    </edge>
    <edge id=":3344796627_5" function="internal">
        <lane id=":3344796627_5_0" index="0" disallow="tram rail_urban rail rail_electric ship" speed="13.89" length="2.41" shape="3390.85,1281.15 3389.61,1280.33 3389.19,1279.50"/>
    </edge>
    <edge id=":3344796627_9" function="internal">
        <lane id=":3344796627_9_0" index="0" speed="13.89" length="2.41" shape="3389.19,1279.50 3389.60,1278.67 3390.84,1277.84"/>
    </edge>
    <edge id=":3344796627_6" function="internal">
        <lane id=":3344796627_6_0" index="0" disallow="tram rail_urban rail rail_electric ship" speed="13.89" length="11.67" shape="3379.20,1277.61 3382.41,1277.95 3385.01,1278.09 3387.61,1278.04 3390.84,1277.84"/>
    </edge>
    <edge id=":3344796627_7" function="internal">
        <lane id=":3344796627_7_0" index="0" disallow="tram rail_urban rail rail_electric ship" speed="13.89" length="12.80" shape="3379.20,1277.61 3382.37,1278.52 3384.78,1280.19 3386.92,1282.41 3389.29,1284.97"/>
    </edge>
    <edge id=":3344796627_8" function="internal">
        <lane id=":3344796627_8_0" index="0" disallow="tram rail_urban rail rail_electric ship" speed="13.89" length="2.41" shape="3379.20,1277.61 3380.32,1278.58 3380.63,1279.45"/>
    </edge>
    <edge id=":3344796627_10" function="internal">
        <lane id=":3344796627_10_0" index="0" speed="13.89" length="2.41" shape="3380.63,1279.45 3380.12,1280.22 3378.79,1280.89"/>
    </edge>
    <edge id=":3344796630_0" function="internal">
        <lane id=":3344796630_0_0" index="0" disallow="tram rail_urban rail rail_electric ship" speed="13.89" length="9.39" shape="3164.16,1280.91 3154.83,1281.87"/>
        <lane id=":3344796630_0_1" index="1" disallow="tram rail_urban rail rail_electric ship" speed="13.89" length="9.39" shape="3163.84,1277.63 3154.48,1278.59"/>
    </edge>
    <edge id=":3344796630_2" function="internal">
        <lane id=":3344796630_2_0" index="0" disallow="tram rail_urban rail rail_electric ship" speed="13.89" length="2.83" shape="3163.84,1277.63 3162.31,1277.16 3161.62,1276.15"/>
    </edge>
    <edge id=":3344796630_3" function="internal">
        <lane id=":3344796630_3_0" index="0" disallow="tram rail_urban rail rail_electric ship" speed="13.89" length="2.41" shape="3163.84,1277.63 3162.53,1276.93 3162.04,1276.15"/>
    </edge>
    <edge id=":3344796630_8" function="internal">
        <lane id=":3344796630_8_0" index="0" speed="13.89" length="8.22" shape="3161.62,1276.15 3161.14,1275.44 3160.33,1272.45 3159.87,1268.20"/>
    </edge>
    <edge id=":3344796630_9" function="internal">
        <lane id=":3344796630_9_0" index="0" speed="13.89" length="2.41" shape="3162.04,1276.15 3162.37,1275.28 3163.52,1274.34"/>
    </edge>
    <edge id=":3344796630_4" function="internal">
        <lane id=":3344796630_4_0" index="0" disallow="tram rail_urban rail rail_electric ship" speed="13.89" length="5.18" shape="3153.76,1272.02 3155.07,1271.68 3155.97,1270.95 3156.47,1269.86 3156.58,1268.39"/>
    </edge>
    <edge id=":3344796630_5" function="internal">
        <lane id=":3344796630_5_0" index="0" disallow="tram rail_urban rail rail_electric ship" speed="13.89" length="9.47" shape="3153.76,1272.02 3163.20,1271.06"/>
        <lane id=":3344796630_5_1" index="1" disallow="tram rail_urban rail rail_electric ship" speed="13.89" length="9.47" shape="3154.12,1275.31 3163.52,1274.34"/>
    </edge>
    <edge id=":3344796630_7" function="internal">
        <lane id=":3344796630_7_0" index="0" disallow="tram rail_urban rail rail_electric ship" speed="13.89" length="2.41" shape="3154.12,1275.31 3155.44,1275.99 3155.94,1276.77"/>
    </edge>
    <edge id=":3344796630_10" function="internal">
        <lane id=":3344796630_10_0" index="0" speed="13.89" length="2.41" shape="3155.94,1276.77 3155.62,1277.63 3154.48,1278.59"/>
    </edge>
    <edge id=":3344796632_0" function="internal">
        <lane id=":3344796632_0_0" index="0" disallow="tram rail_urban rail rail_electric ship" speed="13.89" length="9.50" shape="3174.01,1279.96 3164.55,1280.88"/>
        <lane id=":3344796632_0_1" index="1" disallow="tram rail_urban rail rail_electric ship" speed="13.89" length="9.50" shape="3173.69,1276.67 3164.24,1277.59"/>
    </edge>
    <edge id=":3344796632_2" function="internal">
        <lane id=":3344796632_2_0" index="0" disallow="tram rail_urban rail rail_electric ship" speed="13.89" length="2.41" shape="3173.69,1276.67 3172.38,1275.97 3171.89,1275.19"/>
    </edge>
    <edge id=":3344796632_8" function="internal">
        <lane id=":3344796632_8_0" index="0" speed="13.89" length="2.41" shape="3171.89,1275.19 3172.22,1274.33 3173.37,1273.39"/>
    </edge>
    <edge id=":3344796632_3" function="internal">
        <lane id=":3344796632_3_0" index="0" disallow="tram rail_urban rail rail_electric ship" speed="13.89" length="5.00" shape="3169.67,1267.32 3169.99,1268.65 3170.67,1269.56 3171.69,1270.04 3173.06,1270.11"/>
    </edge>
    <edge id=":3344796632_4" function="internal">
        <lane id=":3344796632_4_0" index="0" disallow="tram rail_urban rail rail_electric ship" speed="13.89" length="10.88" shape="3166.39,1267.64 3166.60,1271.88 3166.32,1274.95 3165.53,1276.86 3164.24,1277.59"/>
    </edge>
    <edge id=":3344796632_5" function="internal">
        <lane id=":3344796632_5_0" index="0" disallow="tram rail_urban rail rail_electric ship" speed="13.89" length="9.50" shape="3163.60,1271.02 3173.06,1270.11"/>
        <lane id=":3344796632_5_1" index="1" disallow="tram rail_urban rail rail_electric ship" speed="13.89" length="9.50" shape="3163.92,1274.31 3173.37,1273.39"/>
    </edge>
    <edge id=":3344796632_7" function="internal">
        <lane id=":3344796632_7_0" index="0" disallow="tram rail_urban rail rail_electric ship" speed="13.89" length="2.41" shape="3163.92,1274.31 3165.23,1275.01 3165.72,1275.79"/>
    </edge>
    <edge id=":3344796632_9" function="internal">
        <lane id=":3344796632_9_0" index="0" speed="13.89" length="2.41" shape="3165.72,1275.79 3165.39,1276.65 3164.24,1277.59"/>
    </edge>
    <edge id=":3344796638_0" function="internal">
        <lane id=":3344796638_0_0" index="0" disallow="tram rail_urban rail rail_electric ship" speed="13.89" length="5.20" shape="3335.68,1275.57 3334.31,1275.62 3333.36,1276.17 3332.84,1277.23 3332.75,1278.78"/>
    </edge>
    <edge id=":3344796638_1" function="internal">
        <lane id=":3344796638_1_0" index="0" disallow="tram rail_urban rail rail_electric ship" speed="13.89" length="4.82" shape="3335.68,1275.57 3334.56,1274.59 3334.25,1273.73 3334.76,1272.96 3336.09,1272.29"/>
    </edge>
    <edge id=":3344796638_2" function="internal">
        <lane id=":3344796638_2_0" index="0" disallow="tram rail_urban rail rail_electric ship" speed="13.89" length="7.07" shape="3329.75,1269.64 3330.56,1270.56 3331.89,1271.31 3333.73,1271.88 3336.09,1272.29"/>
    </edge>
    <edge id=":3344796638_3" function="internal">
        <lane id=":3344796638_3_0" index="0" disallow="tram rail_urban rail rail_electric ship" speed="13.89" length="9.28" shape="3329.75,1269.64 3331.16,1272.17 3332.01,1273.99 3332.48,1275.92 3332.75,1278.78"/>